88
/Users/macpro/Documents/Firefly projects/Q4/(CyB)4Q4_opt_DFT-D4_def2TZVP_C4h_1.out
  C       -3.19882       -1.59574        0.00000
  C        1.59574       -3.19882        0.00000
  C        3.19882        1.59574        0.00000
  C       -1.59574        3.19882        0.00000
  C       -3.57396       -0.07785        0.00000
  C        0.07785       -3.57396        0.00000
  C        3.57396        0.07785        0.00000
  C       -0.07785        3.57396        0.00000
  N       -3.03690        0.41392       -1.23849
  N       -0.41392       -3.03690       -1.23849
  N        3.03690       -0.41392       -1.23849
  N        0.41392        3.03690        1.23849
  N       -3.03690        0.41392        1.23849
  N       -0.41392       -3.03690        1.23849
  N        3.03690       -0.41392        1.23849
  N        0.41392        3.03690       -1.23849
  N       -2.49497       -1.78119       -1.23915
  N        1.78119       -2.49497       -1.23915
  N        2.49497        1.78119       -1.23915
  N       -1.78119        2.49497        1.23915
  N       -2.49497       -1.78119        1.23915
  N        1.78119       -2.49497        1.23915
  N        2.49497        1.78119        1.23915
  N       -1.78119        2.49497       -1.23915
  C       -2.49997       -0.61763       -2.02102
  C        0.61763       -2.49997       -2.02102
  C        2.49997        0.61763       -2.02102
  C       -0.61763        2.49997        2.02102
  C       -2.49997       -0.61763        2.02102
  C        0.61763       -2.49997        2.02102
  C        2.49997        0.61763        2.02102
  C       -0.61763        2.49997       -2.02102
  O       -2.14540       -0.52921       -3.17234
  O        0.52921       -2.14540       -3.17234
  O        2.14540        0.52921       -3.17234
  O       -0.52921        2.14540        3.17234
  O       -2.14540       -0.52921        3.17234
  O        0.52921       -2.14540        3.17234
  O        2.14540        0.52921        3.17234
  O       -0.52921        2.14540       -3.17234
  C       -2.96988        1.79270       -1.67569
  C       -1.79270       -2.96988       -1.67569
  C        2.96988       -1.79270       -1.67569
  C        1.79270        2.96988        1.67569
  C       -2.96988        1.79270        1.67569
  C       -1.79270       -2.96988        1.67569
  C        2.96988       -1.79270        1.67569
  C        1.79270        2.96988       -1.67569
  H       -3.85860        2.32934       -1.32616
  H       -2.32934       -3.85860       -1.32616
  H        3.85860       -2.32934       -1.32616
  H        2.32934        3.85860        1.32616
  H       -3.85860        2.32934        1.32616
  H       -2.32934       -3.85860        1.32616
  H        3.85860       -2.32934        1.32616
  H        2.32934        3.85860       -1.32616
  H       -2.94952        1.77914       -2.76881
  H       -1.77914       -2.94952       -2.76881
  H        2.94952       -1.77914       -2.76881
  H        1.77914        2.94952        2.76881
  H       -2.94952        1.77914        2.76881
  H       -1.77914       -2.94952        2.76881
  H        2.94952       -1.77914        2.76881
  H        1.77914        2.94952       -2.76881
  C       -5.09530       -0.45215        0.00000
  C        0.45215       -5.09530        0.00000
  C        5.09530        0.45215        0.00000
  C       -0.45215        5.09530        0.00000
  H       -5.62797       -0.11803       -0.89328
  H        0.11803       -5.62797       -0.89328
  H        5.62797        0.11803       -0.89328
  H       -0.11803        5.62797        0.89328
  H       -5.62797       -0.11803        0.89328
  H        0.11803       -5.62797        0.89328
  H        5.62797        0.11803        0.89328
  H       -0.11803        5.62797       -0.89328
  C       -4.71935       -1.97299        0.00000
  C        1.97299       -4.71935        0.00000
  C        4.71935        1.97299        0.00000
  C       -1.97299        4.71935        0.00000
  H       -5.03447       -2.51703       -0.89323
  H        2.51703       -5.03447       -0.89323
  H        5.03447        2.51703       -0.89323
  H       -2.51703        5.03447        0.89323
  H       -5.03447       -2.51703        0.89323
  H        2.51703       -5.03447        0.89323
  H        5.03447        2.51703        0.89323
  H       -2.51703        5.03447       -0.89323
