73
/Users/alanarnold/Documents/Firefly projects/Q4/F-@Q4_opt_DFT-D4_def2TZVP_C4_2.out
C         -3.18069       -1.62392        0.00000
C          1.62392       -3.18069        0.00000
C          3.18069        1.62392        0.00000
C         -1.62392        3.18069        0.00000
C         -3.56961       -0.09747        0.00000
C          0.09747       -3.56961        0.00000
C          3.56961        0.09747        0.00000
C         -0.09747        3.56961        0.00000
N         -3.03234        0.38267       -1.24752
N         -0.38267       -3.03234       -1.24752
N          3.03234       -0.38267       -1.24752
N          0.38267        3.03234       -1.24752
N         -2.47979       -1.78877       -1.24819
N          1.78877       -2.47979       -1.24819
N          2.47979        1.78877       -1.24819
N         -1.78877        2.47979       -1.24819
C         -2.45939       -0.62715       -2.01542
C          0.62715       -2.45939       -2.01542
C          2.45939        0.62715       -2.01542
C         -0.62715        2.45939       -2.01542
O         -2.11858       -0.53978       -3.17400
O          0.53978       -2.11858       -3.17400
O          2.11858        0.53978       -3.17400
O         -0.53978        2.11858       -3.17400
C         -2.96480        1.75971       -1.67045
C         -1.75971       -2.96480       -1.67045
C          2.96480       -1.75971       -1.67045
C          1.75971        2.96480       -1.67045
H         -3.85838        2.28993       -1.31321
H         -2.28993       -3.85838       -1.31321
H          3.85838       -2.28993       -1.31321
H          2.28993        3.85838       -1.31321
H         -2.94840        1.74900       -2.76445
H         -1.74900       -2.94840       -2.76445
H          2.94840       -1.74900       -2.76445
H          1.74900        2.94840       -2.76445
H         -4.66380        0.05200        0.00000
H         -0.05200       -4.66380        0.00000
H          4.66380       -0.05200        0.00000
H          0.05200        4.66380        0.00000
H         -4.07019       -2.27847        0.00000
H          2.27847       -4.07019        0.00000
H          4.07019        2.27847        0.00000
H         -2.27847        4.07019        0.00000
N         -3.03234        0.38267        1.24752
N         -0.38267       -3.03234        1.24752
N          3.03234       -0.38267        1.24752
N          0.38267        3.03234        1.24752
N         -2.47979       -1.78877        1.24819
N          1.78877       -2.47979        1.24819
N          2.47979        1.78877        1.24819
N         -1.78877        2.47979        1.24819
C         -2.45939       -0.62715        2.01542
C          0.62715       -2.45939        2.01542
C          2.45939        0.62715        2.01542
C         -0.62715        2.45939        2.01542
O         -2.11858       -0.53978        3.17400
O          0.53978       -2.11858        3.17400
O          2.11858        0.53978        3.17400
O         -0.53978        2.11858        3.17400
C         -2.96480        1.75971        1.67045
C         -1.75971       -2.96480        1.67045
C          2.96480       -1.75971        1.67045
C          1.75971        2.96480        1.67045
H         -3.85838        2.28993        1.31321
H         -2.28993       -3.85838        1.31321
H          3.85838       -2.28993        1.31321
H          2.28993        3.85838        1.31321
H         -2.94840        1.74900        2.76445
H         -1.74900       -2.94840        2.76445
H          2.94840       -1.74900        2.76445
H          1.74900        2.94840        2.76445
F          0.00000        0.00000        1.00000
