73
/Users/macpro/Documents/Firefly projects/Q4/Kr@Q4_opt_DFT-D4_def2TZVP_C4h_1.out
  C       -3.20880       -1.63417        0.00000
  C        1.63417       -3.20880        0.00000
  C        3.20880        1.63417        0.00000
  C       -1.63417        3.20880        0.00000
  C       -3.59932       -0.10202        0.00000
  C        0.10202       -3.59932        0.00000
  C        3.59932        0.10202        0.00000
  C       -0.10202        3.59932        0.00000
  N       -3.04337        0.38397       -1.24377
  N       -0.38397       -3.04337       -1.24377
  N        3.04337       -0.38397       -1.24377
  N        0.38397        3.04337        1.24377
  N       -3.04337        0.38397        1.24377
  N       -0.38397       -3.04337        1.24377
  N        3.04337       -0.38397        1.24377
  N        0.38397        3.04337       -1.24377
  N       -2.48844       -1.79494       -1.24418
  N        1.79494       -2.48844       -1.24418
  N        2.48844        1.79494       -1.24418
  N       -1.79494        2.48844        1.24418
  N       -2.48844       -1.79494        1.24418
  N        1.79494       -2.48844        1.24418
  N        2.48844        1.79494        1.24418
  N       -1.79494        2.48844       -1.24418
  C       -2.49908       -0.63737       -2.02602
  C        0.63737       -2.49908       -2.02602
  C        2.49908        0.63737       -2.02602
  C       -0.63737        2.49908        2.02602
  C       -2.49908       -0.63737        2.02602
  C        0.63737       -2.49908        2.02602
  C        2.49908        0.63737        2.02602
  C       -0.63737        2.49908       -2.02602
  O       -2.13355       -0.54371       -3.17351
  O        0.54371       -2.13355       -3.17351
  O        2.13355        0.54371       -3.17351
  O       -0.54371        2.13355        3.17351
  O       -2.13355       -0.54371        3.17351
  O        0.54371       -2.13355        3.17351
  O        2.13355        0.54371        3.17351
  O       -0.54371        2.13355       -3.17351
  C       -2.97972        1.76861       -1.67290
  C       -1.76861       -2.97972       -1.67290
  C        2.97972       -1.76861       -1.67290
  C        1.76861        2.97972        1.67290
  C       -2.97972        1.76861        1.67290
  C       -1.76861       -2.97972        1.67290
  C        2.97972       -1.76861        1.67290
  C        1.76861        2.97972       -1.67290
  H       -3.87180        2.29810       -1.31894
  H       -2.29810       -3.87180       -1.31894
  H        3.87180       -2.29810       -1.31894
  H        2.29810        3.87180        1.31894
  H       -3.87180        2.29810        1.31894
  H       -2.29810       -3.87180        1.31894
  H        3.87180       -2.29810        1.31894
  H        2.29810        3.87180       -1.31894
  H       -2.96228        1.75748       -2.76600
  H       -1.75748       -2.96228       -2.76600
  H        2.96228       -1.75748       -2.76600
  H        1.75748        2.96228        2.76600
  H       -2.96228        1.75748        2.76600
  H       -1.75748       -2.96228        2.76600
  H        2.96228       -1.75748        2.76600
  H        1.75748        2.96228       -2.76600
  H       -4.68954        0.04850        0.00000
  H       -0.04850       -4.68954        0.00000
  H        4.68954       -0.04850        0.00000
  H        0.04850        4.68954        0.00000
  H       -4.09410       -2.28796        0.00000
  H        2.28796       -4.09410        0.00000
  H        4.09410        2.28796        0.00000
  H       -2.28796        4.09410        0.00000
 Kr        0.00000        0.00000        0.00000
