72
Q4 DFT-D4/def2TZVP & spherical basis functions. 
C         -3.21292       -1.63373        0.00108
C          1.63373       -3.21292       -0.00108
C          3.21292        1.63373        0.00108
C         -1.63373        3.21292       -0.00108
C         -3.59155       -0.10087        0.00179
C          0.10087       -3.59155       -0.00179
C          3.59155        0.10087        0.00179
C         -0.10087        3.59155       -0.00179
N         -3.05975        0.39318       -1.25105
N         -0.37073       -3.04994       -1.25131
N          3.05975       -0.39318       -1.25105
N          0.39318        3.05975        1.25105
N         -3.04994        0.37073        1.25131
N         -0.39318       -3.05975        1.25105
N          3.04994       -0.37073        1.25131
N          0.37073        3.04994       -1.25131
N         -2.46104       -1.77847       -1.22533
N          1.83664       -2.57870       -1.29002
N          2.46104        1.77847       -1.22533
N         -1.77847        2.46104        1.22533
N         -2.57870       -1.83664        1.29002
N          1.77847       -2.46104        1.22533
N          2.57870        1.83664        1.29002
N         -1.83664        2.57870       -1.29002
C         -2.47536       -0.62242       -2.00996
C          0.64708       -2.50086       -2.03078
C          2.47536        0.62242       -2.00996
C         -0.62242        2.47536        2.00996
C         -2.50086       -0.64708        2.03078
C          0.62242       -2.47536        2.00996
C          2.50086        0.64708        2.03078
C         -0.64708        2.50086       -2.03078
O         -2.13439       -0.54493       -3.16931
O          0.54475       -2.13371       -3.17725
O          2.13439        0.54493       -3.16931
O         -0.54493        2.13439        3.16931
O         -2.13371       -0.54475        3.17725
O          0.54493       -2.13439        3.16931
O          2.13371        0.54475        3.17725
O         -0.54475        2.13371       -3.17725
C         -2.99205        1.78274       -1.67971
C         -1.75403       -2.96226       -1.66327
C          2.99205       -1.78274       -1.67971
C          1.78274        2.99205        1.67971
C         -2.96226        1.75403        1.66327
C         -1.78274       -2.99205        1.67971
C          2.96226       -1.75403        1.66327
C          1.75403        2.96226       -1.66327
H         -3.88960        2.29464       -1.31972
H         -2.28768       -3.85091       -1.30734
H          3.88960       -2.29464       -1.31972
H          2.29464        3.88960        1.31972
H         -3.85091        2.28768        1.30734
H         -2.29464       -3.88960        1.31972
H          3.85091       -2.28768        1.30734
H          2.28768        3.85091       -1.30734
H         -2.96646        1.75199       -2.77399
H         -1.74826       -2.94137       -2.75819
H          2.96646       -1.75199       -2.77399
H          1.75199        2.96646        2.77399
H         -2.94137        1.74826        2.75819
H         -1.75199       -2.96646        2.77399
H          2.94137       -1.74826        2.75819
H          1.74826        2.94137       -2.75819
H         -4.68437        0.04861        0.00618
H         -0.04861       -4.68437       -0.00618
H          4.68437       -0.04861        0.00618
H          0.04861        4.68437       -0.00618
H         -4.10605       -2.28138       -0.04265
H          2.28138       -4.10605        0.04265
H          4.10605        2.28138       -0.04265
H         -2.28138        4.10605        0.04265