73
/Users/macpro/Documents/Firefly projects/Q4/Rn@Q4_opt_DFT-D4_def2TZVP_ECP_C4h_1.out
  C       -3.22492       -1.64001        0.00000
  C        1.64001       -3.22492        0.00000
  C        3.22492        1.64001        0.00000
  C       -1.64001        3.22492        0.00000
  C       -3.61566       -0.10430        0.00000
  C        0.10430       -3.61566        0.00000
  C        3.61566        0.10430        0.00000
  C       -0.10430        3.61566        0.00000
  N       -3.06321        0.38295       -1.24863
  N       -0.38295       -3.06321       -1.24863
  N        3.06321       -0.38295       -1.24863
  N        0.38295        3.06321        1.24863
  N       -3.06321        0.38295        1.24863
  N       -0.38295       -3.06321        1.24863
  N        3.06321       -0.38295        1.24863
  N        0.38295        3.06321       -1.24863
  N       -2.50727       -1.80406       -1.24884
  N        1.80406       -2.50727       -1.24884
  N        2.50727        1.80406       -1.24884
  N       -1.80406        2.50727        1.24884
  N       -2.50727       -1.80406        1.24884
  N        1.80406       -2.50727        1.24884
  N        2.50727        1.80406        1.24884
  N       -1.80406        2.50727       -1.24884
  C       -2.52962       -0.64548       -2.03459
  C        0.64548       -2.52962       -2.03459
  C        2.52962        0.64548       -2.03459
  C       -0.64548        2.52962        2.03459
  C       -2.52962       -0.64548        2.03459
  C        0.64548       -2.52962        2.03459
  C        2.52962        0.64548        2.03459
  C       -0.64548        2.52962       -2.03459
  O       -2.17118       -0.55418       -3.18437
  O        0.55418       -2.17118       -3.18437
  O        2.17118        0.55418       -3.18437
  O       -0.55418        2.17118        3.18437
  O       -2.17118       -0.55418        3.18437
  O        0.55418       -2.17118        3.18437
  O        2.17118        0.55418        3.18437
  O       -0.55418        2.17118       -3.18437
  C       -2.98775        1.77337       -1.67407
  C       -1.77337       -2.98775       -1.67407
  C        2.98775       -1.77337       -1.67407
  C        1.77337        2.98775        1.67407
  C       -2.98775        1.77337        1.67407
  C       -1.77337       -2.98775        1.67407
  C        2.98775       -1.77337        1.67407
  C        1.77337        2.98775       -1.67407
  H       -3.88021        2.30258       -1.32131
  H       -2.30258       -3.88021       -1.32131
  H        3.88021       -2.30258       -1.32131
  H        2.30258        3.88021        1.32131
  H       -3.88021        2.30258        1.32131
  H       -2.30258       -3.88021        1.32131
  H        3.88021       -2.30258        1.32131
  H        2.30258        3.88021       -1.32131
  H       -2.96842        1.76129       -2.76682
  H       -1.76129       -2.96842       -2.76682
  H        2.96842       -1.76129       -2.76682
  H        1.76129        2.96842        2.76682
  H       -2.96842        1.76129        2.76682
  H       -1.76129       -2.96842        2.76682
  H        2.96842       -1.76129        2.76682
  H        1.76129        2.96842       -2.76682
  H       -4.70595        0.04290        0.00000
  H       -0.04290       -4.70595        0.00000
  H        4.70595       -0.04290        0.00000
  H        0.04290        4.70595        0.00000
  H       -4.11261       -2.29011        0.00000
  H        2.29011       -4.11261        0.00000
  H        4.11261        2.29011        0.00000
  H       -2.29011        4.11261        0.00000
 Rn        0.00000        0.00000        0.00000
